*SPEF "IEEE 1481-1999"
*DESIGN "Bicubic"
*DATE "Tue Feb  4 00:08:44 2025"
*VENDOR "SYNOPSYS INC"
*PROGRAM "Synopsys Design Compiler cmos"
*VERSION "Q-2019.12"
*DESIGN_FLOW "SYNTHESIS"
*DIVIDER /
*DELIMITER :
*BUS_DELIMITER []
*T_UNIT 1.0 NS
*C_UNIT 1.0 PF
*R_UNIT 1.0 KOHM
*L_UNIT 1.0 HENRY

*PORTS

CLK I *L 0.000e+00 *S 0.000e+00 0.000e+00 
RST I *L 0.000e+00 *S 1.354e-03 1.354e-03 
V0\[6\] I *L 0.000e+00 *S 3.568e-03 3.568e-03 
V0\[5\] I *L 0.000e+00 *S 3.568e-03 3.568e-03 
V0\[4\] I *L 0.000e+00 *S 3.568e-03 3.568e-03 
V0\[3\] I *L 0.000e+00 *S 3.568e-03 3.568e-03 
V0\[2\] I *L 0.000e+00 *S 3.568e-03 3.568e-03 
V0\[1\] I *L 0.000e+00 *S 3.568e-03 3.568e-03 
V0\[0\] I *L 0.000e+00 *S 4.731e-03 4.731e-03 
H0\[6\] I *L 0.000e+00 *S 3.601e-03 3.601e-03 
H0\[5\] I *L 0.000e+00 *S 3.601e-03 3.601e-03 
H0\[4\] I *L 0.000e+00 *S 3.601e-03 3.601e-03 
H0\[3\] I *L 0.000e+00 *S 3.601e-03 3.601e-03 
H0\[2\] I *L 0.000e+00 *S 3.601e-03 3.601e-03 
H0\[1\] I *L 0.000e+00 *S 3.502e-03 3.502e-03 
H0\[0\] I *L 0.000e+00 *S 3.618e-03 3.618e-03 
SW\[4\] I *L 0.000e+00 *S 5.176e-03 5.176e-03 
SW\[3\] I *L 0.000e+00 *S 4.531e-03 4.531e-03 
SW\[2\] I *L 0.000e+00 *S 4.828e-03 4.828e-03 
SW\[1\] I *L 0.000e+00 *S 6.600e-03 6.600e-03 
SW\[0\] I *L 0.000e+00 *S 9.993e-03 9.993e-03 
SH\[4\] I *L 0.000e+00 *S 5.996e-03 5.996e-03 
SH\[3\] I *L 0.000e+00 *S 6.513e-03 6.513e-03 
SH\[2\] I *L 0.000e+00 *S 6.370e-03 6.370e-03 
SH\[1\] I *L 0.000e+00 *S 6.173e-03 6.173e-03 
SH\[0\] I *L 0.000e+00 *S 6.771e-03 6.771e-03 
TW\[5\] I *L 0.000e+00 *S 1.093e-02 1.093e-02 
TW\[4\] I *L 0.000e+00 *S 2.132e-02 2.132e-02 
TW\[3\] I *L 0.000e+00 *S 1.983e-02 1.983e-02 
TW\[2\] I *L 0.000e+00 *S 1.654e-02 1.654e-02 
TW\[1\] I *L 0.000e+00 *S 1.815e-02 1.815e-02 
TW\[0\] I *L 0.000e+00 *S 1.340e-02 1.340e-02 
TH\[5\] I *L 0.000e+00 *S 4.369e-03 4.369e-03 
TH\[4\] I *L 0.000e+00 *S 1.061e-02 1.061e-02 
TH\[3\] I *L 0.000e+00 *S 1.159e-02 1.159e-02 
TH\[2\] I *L 0.000e+00 *S 2.612e-02 2.612e-02 
TH\[1\] I *L 0.000e+00 *S 2.039e-02 2.039e-02 
TH\[0\] I *L 0.000e+00 *S 2.031e-02 2.031e-02 
DONE O *L 1.000e+00 *S 5.876e-01 4.054e-01 

*R_NET RST 1.354e-02
*DRIVER RST
*CELL NULL
*C2_R1_C1 6.768e-03 5.667e-06 6.768e-03 
*LOADS
*RC U12512:A 7.670e-08
*END

*R_NET V0\[6\] 3.568e-02
*DRIVER V0\[6\]
*CELL NULL
*C2_R1_C1 1.784e-02 1.700e-05 1.784e-02 
*LOADS
*RC U867:B 6.524e-08
*RC U16376:B1 6.338e-08
*RC U16833:B 7.357e-08
*END

*R_NET V0\[5\] 3.568e-02
*DRIVER V0\[5\]
*CELL NULL
*C2_R1_C1 1.784e-02 1.700e-05 1.784e-02 
*LOADS
*RC U874:B 6.524e-08
*RC U16375:B1 6.338e-08
*RC U16832:B 7.357e-08
*END

*R_NET V0\[4\] 3.568e-02
*DRIVER V0\[4\]
*CELL NULL
*C2_R1_C1 1.784e-02 1.700e-05 1.784e-02 
*LOADS
*RC U897:B 6.524e-08
*RC U16374:B1 6.338e-08
*RC U16831:B 7.357e-08
*END

*R_NET V0\[3\] 3.568e-02
*DRIVER V0\[3\]
*CELL NULL
*C2_R1_C1 1.784e-02 1.700e-05 1.784e-02 
*LOADS
*RC U946:B 6.524e-08
*RC U16371:B1 6.338e-08
*RC U16830:B 7.357e-08
*END

*R_NET V0\[2\] 3.568e-02
*DRIVER V0\[2\]
*CELL NULL
*C2_R1_C1 1.784e-02 1.700e-05 1.784e-02 
*LOADS
*RC U968:B 6.524e-08
*RC U16370:B1 6.338e-08
*RC U16824:B 7.357e-08
*END

*R_NET V0\[1\] 3.568e-02
*DRIVER V0\[1\]
*CELL NULL
*C2_R1_C1 1.784e-02 1.700e-05 1.784e-02 
*LOADS
*RC U1008:B 6.524e-08
*RC U16373:B1 6.338e-08
*RC U16821:B 7.357e-08
*END

*R_NET V0\[0\] 4.731e-02
*DRIVER V0\[0\]
*CELL NULL
*C2_R1_C1 2.366e-02 2.267e-05 2.366e-02 
*LOADS
*RC U1008:A 6.455e-08
*RC U16372:B1 6.338e-08
*RC U16821:A 7.523e-08
*RC U16829:A 6.496e-08
*END

*R_NET H0\[6\] 3.601e-02
*DRIVER H0\[6\]
*CELL NULL
*C2_R1_C1 1.800e-02 1.700e-05 1.800e-02 
*LOADS
*RC U892:B 6.524e-08
*RC U13231:B 6.524e-08
*RC U16810:B 7.357e-08
*END

*R_NET H0\[5\] 3.601e-02
*DRIVER H0\[5\]
*CELL NULL
*C2_R1_C1 1.800e-02 1.700e-05 1.800e-02 
*LOADS
*RC U961:B 6.524e-08
*RC U16817:B 7.357e-08
*RC U17044:B 6.524e-08
*END

*R_NET H0\[4\] 3.601e-02
*DRIVER H0\[4\]
*CELL NULL
*C2_R1_C1 1.800e-02 1.700e-05 1.800e-02 
*LOADS
*RC U993:B 6.524e-08
*RC U13250:B 6.524e-08
*RC U16815:B 7.357e-08
*END

*R_NET H0\[3\] 3.601e-02
*DRIVER H0\[3\]
*CELL NULL
*C2_R1_C1 1.800e-02 1.700e-05 1.800e-02 
*LOADS
*RC U1033:B 6.524e-08
*RC U16814:B 7.357e-08
*RC U17045:B 6.524e-08
*END

*R_NET H0\[2\] 3.601e-02
*DRIVER H0\[2\]
*CELL NULL
*C2_R1_C1 1.800e-02 1.700e-05 1.800e-02 
*LOADS
*RC U1055:B 6.524e-08
*RC U16813:B 7.357e-08
*RC U17046:B 6.524e-08
*END

*R_NET H0\[1\] 3.502e-02
*DRIVER H0\[1\]
*CELL NULL
*C2_R1_C1 1.751e-02 1.700e-05 1.751e-02 
*LOADS
*RC U16356:B 6.524e-08
*RC U16811:A 6.496e-08
*RC DP_OP_394J1_131_3208\/U9:B 6.822e-08
*END

*R_NET H0\[0\] 3.618e-02
*DRIVER H0\[0\]
*CELL NULL
*C2_R1_C1 1.809e-02 1.700e-05 1.809e-02 
*LOADS
*RC U1102:A 6.455e-08
*RC U16354:A 7.523e-08
*RC U16355:B 6.524e-08
*END

*R_NET SW\[4\] 5.176e-02
*DRIVER SW\[4\]
*CELL NULL
*C2_R1_C1 2.588e-02 1.700e-05 2.588e-02 
*LOADS
*RC U5157:B 1.148e-07
*RC U12530:B 6.524e-08
*RC U13290:B 1.133e-07
*END

*R_NET SW\[3\] 4.531e-02
*DRIVER SW\[3\]
*CELL NULL
*C2_R1_C1 2.265e-02 1.700e-05 2.265e-02 
*LOADS
*RC U5107:A 7.670e-08
*RC U5156:B 1.148e-07
*RC U13220:B 6.524e-08
*END

*R_NET SW\[2\] 4.828e-02
*DRIVER SW\[2\]
*CELL NULL
*C2_R1_C1 2.414e-02 1.700e-05 2.414e-02 
*LOADS
*RC U5101:A 9.092e-08
*RC U5157:A 1.174e-07
*RC U12531:B 6.524e-08
*END

*R_NET SW\[1\] 6.600e-02
*DRIVER SW\[1\]
*CELL NULL
*C2_R1_C1 3.300e-02 2.267e-05 3.300e-02 
*LOADS
*RC U5044:B 7.644e-08
*RC U5106:A 1.174e-07
*RC U5156:A 1.174e-07
*RC U9109:A0N 6.275e-08
*END

*R_NET SW\[0\] 9.993e-02
*DRIVER SW\[0\]
*CELL NULL
*C2_R1_C1 4.996e-02 2.833e-05 4.996e-02 
*LOADS
*RC U4546:A0 6.739e-08
*RC U4826:B 7.131e-08
*RC U5106:B 1.148e-07
*RC U5154:A 2.475e-07
*RC U12532:B 6.524e-08
*END

*R_NET SH\[4\] 5.996e-02
*DRIVER SH\[4\]
*CELL NULL
*C2_R1_C1 2.998e-02 2.267e-05 2.998e-02 
*LOADS
*RC U5193:B 1.148e-07
*RC U9234:B 8.744e-08
*RC U12280:B 6.541e-08
*RC U13674:B0 7.210e-08
*END

*R_NET SH\[3\] 6.513e-02
*DRIVER SH\[3\]
*CELL NULL
*C2_R1_C1 3.257e-02 2.267e-05 3.257e-02 
*LOADS
*RC U5171:A 6.945e-08
*RC U5193:A 1.174e-07
*RC U13242:B 6.541e-08
*RC U13683:B 1.168e-07
*END

*R_NET SH\[2\] 6.370e-02
*DRIVER SH\[2\]
*CELL NULL
*C2_R1_C1 3.185e-02 2.267e-05 3.185e-02 
*LOADS
*RC U5170:A 6.945e-08
*RC U5191:A 1.383e-07
*RC U7882:B 8.800e-08
*RC U13232:B 6.524e-08
*END

*R_NET SH\[1\] 6.173e-02
*DRIVER SH\[1\]
*CELL NULL
*C2_R1_C1 3.086e-02 2.267e-05 3.086e-02 
*LOADS
*RC U5597:B 7.644e-08
*RC U5175:A 6.945e-08
*RC U5191:B 1.387e-07
*RC U12247:B 6.524e-08
*END

*R_NET SH\[0\] 6.771e-02
*DRIVER SH\[0\]
*CELL NULL
*C2_R1_C1 3.385e-02 1.700e-05 3.385e-02 
*LOADS
*RC U5190:A 2.475e-07
*RC U12248:B 6.524e-08
*RC U13187:B 7.093e-08
*END

*R_NET TW\[5\] 1.093e-01
*DRIVER TW\[5\]
*CELL NULL
*C2_R1_C1 5.463e-02 2.267e-05 5.463e-02 
*LOADS
*RC U5132:A 8.163e-08
*RC U6857:A 2.475e-07
*RC U6855:C 1.272e-07
*RC U13078:B 1.628e-07
*END

*R_NET TW\[4\] 2.132e-01
*DRIVER TW\[4\]
*CELL NULL
*C2_R1_C1 1.066e-01 7.933e-05 1.066e-01 
*LOADS
*RC U5079:B 1.103e-07
*RC U5091:B 8.800e-08
*RC U5122:A 7.278e-08
*RC U5128:B 1.299e-07
*RC U5145:A 8.163e-08
*RC U5148:A 8.575e-08
*RC U7891:A 6.496e-08
*RC U6855:B 1.299e-07
*RC U7887:A 6.644e-08
*RC U11587:B 1.168e-07
*RC U12245:B 6.524e-08
*RC U12270:B 6.524e-08
*RC U12271:C 6.592e-08
*RC U16760:B 6.524e-08
*END

*R_NET TW\[3\] 1.983e-01
*DRIVER TW\[3\]
*CELL NULL
*C2_R1_C1 9.913e-02 5.667e-05 9.913e-02 
*LOADS
*RC U4730:A 1.418e-07
*RC U5122:B 7.131e-08
*RC U5147:A 1.174e-07
*RC U5152:A 2.475e-07
*RC U9175:B 1.103e-07
*RC U11433:A 1.742e-07
*RC U12272:B 6.524e-08
*RC U12274:B 6.524e-08
*RC U12278:B 6.524e-08
*RC U16747:B 6.524e-08
*END

*R_NET TW\[2\] 1.654e-01
*DRIVER TW\[2\]
*CELL NULL
*C2_R1_C1 8.271e-02 3.400e-05 8.271e-02 
*LOADS
*RC U11595:B 1.628e-07
*RC U5147:B 1.148e-07
*RC U5155:A 1.980e-07
*RC U5799:A 1.126e-07
*RC U10856:C 1.809e-07
*RC U11433:B 1.683e-07
*END

*R_NET TW\[1\] 1.815e-01
*DRIVER TW\[1\]
*CELL NULL
*C2_R1_C1 9.077e-02 3.967e-05 9.077e-02 
*LOADS
*RC U5842:A 1.074e-07
*RC U5144:A 1.293e-07
*RC U11595:A 1.659e-07
*RC U5148:B 8.800e-08
*RC U5169:A 2.475e-07
*RC U10856:A 1.882e-07
*RC U11564:A 1.024e-07
*END

*R_NET TW\[0\] 1.340e-01
*DRIVER TW\[0\]
*CELL NULL
*C2_R1_C1 6.700e-02 2.267e-05 6.700e-02 
*LOADS
*RC U5174:A 1.980e-07
*RC U5324:A 1.524e-07
*RC U5328:A 2.922e-07
*RC U11564:B 1.168e-07
*END

*R_NET TH\[5\] 4.369e-02
*DRIVER TH\[5\]
*CELL NULL
*C2_R1_C1 2.185e-02 1.700e-05 2.185e-02 
*LOADS
*RC U5179:B 7.093e-08
*RC U5194:A 9.092e-08
*RC U12689:A 8.575e-08
*END

*R_NET TH\[4\] 1.061e-01
*DRIVER TH\[4\]
*CELL NULL
*C2_R1_C1 5.303e-02 3.400e-05 5.303e-02 
*LOADS
*RC U5179:A 7.299e-08
*RC U5199:A 9.092e-08
*RC U10632:B 1.168e-07
*RC U13000:A 1.126e-07
*RC U13667:C 1.151e-07
*RC U13668:A1 9.253e-08
*END

*R_NET TH\[3\] 1.159e-01
*DRIVER TH\[3\]
*CELL NULL
*C2_R1_C1 5.796e-02 2.833e-05 5.796e-02 
*LOADS
*RC U5184:A 6.899e-08
*RC U5195:A 1.383e-07
*RC U5196:B 1.387e-07
*RC U5198:A 1.293e-07
*RC U11547:B 1.817e-07
*END

*R_NET TH\[2\] 2.612e-01
*DRIVER TH\[2\]
*CELL NULL
*C2_R1_C1 1.306e-01 6.800e-05 1.306e-01 
*LOADS
*RC U5092:B 7.093e-08
*RC U5188:B 8.800e-08
*RC U5192:B 1.103e-07
*RC U5195:B 1.387e-07
*RC U5201:A 1.980e-07
*RC U10623:A 1.742e-07
*RC U11166:C 1.835e-07
*RC U12074:B 1.103e-07
*RC U12671:B0 1.213e-07
*RC U13668:A0 9.036e-08
*RC U13670:A 7.278e-08
*RC U13671:A1 1.220e-07
*END

*R_NET TH\[1\] 2.039e-01
*DRIVER TH\[1\]
*CELL NULL
*C2_R1_C1 1.020e-01 4.533e-05 1.020e-01 
*LOADS
*RC U5172:B 1.103e-07
*RC U5188:A 8.575e-08
*RC U5196:A 1.383e-07
*RC U5197:A 1.383e-07
*RC U5200:A 1.980e-07
*RC U5387:A 2.922e-07
*RC U6180:A 6.864e-08
*RC U11538:A0 1.243e-07
*END

*R_NET TH\[0\] 2.031e-01
*DRIVER TH\[0\]
*CELL NULL
*C2_R1_C1 1.016e-01 3.967e-05 1.016e-01 
*LOADS
*RC U5187:B 1.103e-07
*RC U5197:B 1.387e-07
*RC U5202:A 2.475e-07
*RC U5336:A 2.475e-07
*RC U10623:B 1.683e-07
*RC U11538:A1 1.220e-07
*RC U11863:B 1.168e-07
*END

*R_NET n17659 1.226e-02
*DRIVER U12543:Y
*CELL NOR3XL
*C2_R1_C1 6.128e-03 5.667e-06 6.128e-03 
*LOADS
*RC U12542:A 6.945e-08
*END

*R_NET cur_state\[2\] 3.733e-02
*DRIVER cur_state_reg\[2\]:Q
*CELL DFFRX1
*C2_R1_C1 1.866e-02 1.700e-05 1.866e-02 
*LOADS
*RC U10841:B 7.890e-08
*RC U5890:B 6.479e-08
*RC U16623:C 6.781e-08
*END

*R_NET cur_state\[1\] 2.732e-02
*DRIVER cur_state_reg\[1\]:Q
*CELL DFFRX1
*C2_R1_C1 1.366e-02 1.133e-05 1.366e-02 
*LOADS
*RC U8422:B 8.800e-08
*RC U16648:B 6.682e-08
*END

*R_NET cur_state\[0\] 2.439e-02
*DRIVER cur_state_reg\[0\]:Q
*CELL DFFRX1
*C2_R1_C1 1.220e-02 1.133e-05 1.220e-02 
*LOADS
*RC U2961:A 7.299e-08
*RC U12304:B 6.524e-08
*END

*R_NET nxt_state\[2\] 1.122e-02
*DRIVER U16626:Y
*CELL NAND3XL
*C2_R1_C1 5.611e-03 5.667e-06 5.611e-03 
*LOADS
*RC cur_state_reg\[2\]:D 6.359e-08
*END

*R_NET nxt_state\[1\] 1.122e-02
*DRIVER U16624:Y
*CELL NAND3XL
*C2_R1_C1 5.611e-03 5.667e-06 5.611e-03 
*LOADS
*RC cur_state_reg\[1\]:D 6.359e-08
*END

*R_NET nxt_state\[0\] 1.122e-02
*DRIVER U16650:Y
*CELL NAND2XL
*C2_R1_C1 5.611e-03 5.667e-06 5.611e-03 
*LOADS
*RC cur_state_reg\[0\]:D 6.359e-08
*END

*R_NET counter\[2\] 5.775e-02
*DRIVER counter_reg\[2\]:Q
*CELL DFFRX1
*C2_R1_C1 2.887e-02 2.833e-05 2.887e-02 
*LOADS
*RC U9247:B 6.479e-08
*RC U13267:B 6.479e-08
*RC U16616:B 6.524e-08
*RC U16825:B 6.524e-08
*RC DP_OP_393J1_130_8634\/U8:A 6.718e-08
*END

*R_NET counter\[1\] 5.951e-02
*DRIVER counter_reg\[1\]:Q
*CELL DFFRX1
*C2_R1_C1 2.976e-02 2.833e-05 2.976e-02 
*LOADS
*RC U9246:B 6.479e-08
*RC U13257:B 7.357e-08
*RC U13267:A 6.646e-08
*RC U16822:B 6.524e-08
*RC DP_OP_393J1_130_8634\/U9:A 6.718e-08
*END

*R_NET counter\[0\] 6.352e-02
*DRIVER counter_reg\[0\]:Q
*CELL DFFRX1
*C2_R1_C1 3.176e-02 2.833e-05 3.176e-02 
*LOADS
*RC U13257:A 7.523e-08
*RC U13268:B 7.131e-08
*RC U13274:B 7.131e-08
*RC U16819:B 6.524e-08
*RC DP_OP_393J1_130_8634\/U10:B 7.684e-08
*END

*R_NET h_index\[6\] 7.323e-02
*DRIVER h_index_reg\[6\]:Q
*CELL DFFRX1
*C2_R1_C1 3.662e-02 3.400e-05 3.662e-02 
*LOADS
*RC U2824:A 6.764e-08
*RC U2899:B 7.093e-08
*RC U12314:A0N 6.275e-08
*RC U13990:A 7.523e-08
*RC U13991:B 6.524e-08
*RC U16697:B 7.319e-08
*END

*R_NET h_index\[5\] 6.000e-02
*DRIVER h_index_reg\[5\]:Q
*CELL DFFRX1
*C2_R1_C1 3.000e-02 2.833e-05 3.000e-02 
*LOADS
*RC U2863:B 6.479e-08
*RC U2907:B 7.319e-08
*RC U12271:B 6.682e-08
*RC U16845:A0 6.739e-08
*RC U16846:C 6.781e-08
*END

*R_NET h_index\[4\] 4.783e-02
*DRIVER h_index_reg\[4\]:Q
*CELL DFFRX1
*C2_R1_C1 2.392e-02 2.267e-05 2.392e-02 
*LOADS
*RC U2851:B 6.479e-08
*RC U2872:B 7.319e-08
*RC U16438:B 6.524e-08
*RC U16846:B 6.782e-08
*END

*R_NET h_index\[3\] 7.422e-02
*DRIVER h_index_reg\[3\]:Q
*CELL DFFRX1
*C2_R1_C1 3.711e-02 3.400e-05 3.711e-02 
*LOADS
*RC U750:B 6.524e-08
*RC U2824:C 6.707e-08
*RC U2875:B 7.319e-08
*RC U10915:A0N 8.042e-08
*RC U13636:A 6.945e-08
*RC U16435:B 6.524e-08
*END

*R_NET h_index\[2\] 8.750e-02
*DRIVER h_index_reg\[2\]:Q
*CELL DFFRX2
*C2_R1_C1 4.375e-02 3.967e-05 4.375e-02 
*LOADS
*RC U2851:A 6.646e-08
*RC U2905:B 7.319e-08
*RC U12313:B 6.524e-08
*RC U13637:A 7.401e-08
*RC U13638:A 8.432e-08
*RC U16428:A1 6.632e-08
*RC U16429:A1 6.632e-08
*END

*R_NET h_index\[1\] 7.130e-02
*DRIVER h_index_reg\[1\]:Q
*CELL DFFRX1
*C2_R1_C1 3.565e-02 3.400e-05 3.565e-02 
*LOADS
*RC U2824:B 6.714e-08
*RC U2876:B 7.319e-08
*RC U16407:B 6.524e-08
*RC U16428:B0 6.584e-08
*RC U16429:A0 6.739e-08
*RC U16643:B 6.524e-08
*END

*R_NET h_index\[0\] 7.404e-02
*DRIVER h_index_reg\[0\]:Q
*CELL DFFRX4
*C2_R1_C1 3.702e-02 3.400e-05 3.702e-02 
*LOADS
*RC U2863:A 6.646e-08
*RC U7266:B 7.357e-08
*RC U9120:B 6.524e-08
*RC U12639:A1N 8.106e-08
*RC U16407:A 6.644e-08
*RC U16645:B 6.682e-08
*END

*R_NET v_index\[6\] 1.211e-02
*DRIVER v_index_reg\[6\]:Q
*CELL DFFRX1
*C2_R1_C1 6.056e-03 5.667e-06 6.056e-03 
*LOADS
*RC U5882:A 6.864e-08
*END

*R_NET v_index\[4\] 1.225e-01
*DRIVER v_index_reg\[4\]:Q
*CELL DFFRX2
*C2_R1_C1 6.123e-02 5.667e-05 6.123e-02 
*LOADS
*RC U2882:B 7.319e-08
*RC U2933:A 6.646e-08
*RC U9238:B 6.524e-08
*RC U12464:A 8.432e-08
*RC U13962:A 7.401e-08
*RC U16636:A 6.644e-08
*RC U16701:A 6.644e-08
*RC U16838:A1 6.632e-08
*RC U16839:A1 6.632e-08
*RC U16840:B 6.524e-08
*END

*R_NET v_index\[2\] 1.351e-01
*DRIVER v_index_reg\[2\]:Q
*CELL DFFRX2
*C2_R1_C1 6.755e-02 6.233e-05 6.755e-02 
*LOADS
*RC U2933:B 6.479e-08
*RC U5837:B 7.319e-08
*RC U9237:B 6.524e-08
*RC U12245:A 6.644e-08
*RC U12305:A 6.644e-08
*RC U12312:B 6.524e-08
*RC U13954:A 7.401e-08
*RC U13955:A 8.432e-08
*RC U16627:B 7.332e-08
*RC U16835:A1 6.632e-08
*RC U16836:A1 6.632e-08
*END

*R_NET v_index\[0\] 8.430e-02
*DRIVER v_index_reg\[0\]:Q
*CELL DFFRX4
*C2_R1_C1 4.215e-02 3.967e-05 4.215e-02 
*LOADS
*RC U2926:A 6.646e-08
*RC U7878:B 7.357e-08
*RC U12273:A 6.644e-08
*RC U12301:A 6.496e-08
*RC U16614:B 6.524e-08
*RC U16627:A 7.425e-08
*RC U16635:B 6.682e-08
*END

*R_NET counter_v\[2\] 8.050e-02
*DRIVER counter_v_reg\[2\]:Q
*CELL DFFRX1
*C2_R1_C1 4.025e-02 3.967e-05 4.025e-02 
*LOADS
*RC U9085:A 6.764e-08
*RC U9228:B 6.479e-08
*RC U13264:A 6.646e-08
*RC U13273:B 6.479e-08
*RC U16827:B 6.524e-08
*RC U16854:A0N 6.275e-08
*RC U17094:AN 6.449e-08
*END

*R_NET counter_v\[1\] 1.218e-02
*DRIVER counter_v_reg\[1\]:Q
*CELL DFFRX1
*C2_R1_C1 6.088e-03 5.667e-06 6.088e-03 
*LOADS
*RC U13263:A 6.899e-08
*END

*R_NET counter_v\[0\] 4.839e-02
*DRIVER counter_v_reg\[0\]:Q
*CELL DFFRX1
*C2_R1_C1 2.419e-02 2.267e-05 2.419e-02 
*LOADS
*RC U1127:B 6.524e-08
*RC U9241:B 6.524e-08
*RC U13262:B 7.093e-08
*RC U17135:A 7.278e-08
*END

*R_NET position_x\[31\] 2.374e-02
*DRIVER position_x_reg\[31\]:Q
*CELL DFFRX2
*C2_R1_C1 1.187e-02 1.133e-05 1.187e-02 
*LOADS
*RC U12285:B 6.541e-08
*RC DP_OP_393J1_130_8634\/U2:A 6.913e-08
*END

*R_NET position_x\[30\] 1.220e-02
*DRIVER position_x_reg\[30\]:Q
*CELL DFFRX2
*C2_R1_C1 6.100e-03 5.667e-06 6.100e-03 
*LOADS
*RC DP_OP_393J1_130_8634\/U3:A 6.913e-08
*END

*R_NET position_x\[29\] 1.220e-02
*DRIVER position_x_reg\[29\]:Q
*CELL DFFRX2
*C2_R1_C1 6.100e-03 5.667e-06 6.100e-03 
*LOADS
*RC DP_OP_393J1_130_8634\/U4:A 6.913e-08
*END

*R_NET position_x\[28\] 1.220e-02
*DRIVER position_x_reg\[28\]:Q
*CELL DFFRX2
*C2_R1_C1 6.100e-03 5.667e-06 6.100e-03 
*LOADS
*RC DP_OP_393J1_130_8634\/U5:A 6.913e-08
*END

*R_NET position_x\[27\] 1.220e-02
*DRIVER position_x_reg\[27\]:Q
*CELL DFFRX2
*C2_R1_C1 6.100e-03 5.667e-06 6.100e-03 
*LOADS
*RC DP_OP_393J1_130_8634\/U6:A 6.913e-08
*END

*R_NET position_x\[26\] 1.220e-02
*DRIVER position_x_reg\[26\]:Q
*CELL DFFRX2
*C2_R1_C1 6.100e-03 5.667e-06 6.100e-03 
*LOADS
*RC DP_OP_393J1_130_8634\/U7:A 6.913e-08
*END

*R_NET position_x\[25\] 1.204e-02
*DRIVER position_x_reg\[25\]:Q
*CELL DFFRX2
*C2_R1_C1 6.020e-03 5.667e-06 6.020e-03 
*LOADS
*RC DP_OP_393J1_130_8634\/U8:B 6.822e-08
*END

*R_NET position_x\[24\] 2.623e-02
*DRIVER position_x_reg\[24\]:Q
*CELL DFFRX2
*C2_R1_C1 1.312e-02 1.133e-05 1.312e-02 
*LOADS
*RC U10855:A0N 8.042e-08
*RC DP_OP_393J1_130_8634\/U9:B 6.822e-08
*END

*R_NET position_x\[23\] 2.478e-02
*DRIVER position_x_reg\[23\]:Q
*CELL DFFRX2
*C2_R1_C1 1.239e-02 1.133e-05 1.239e-02 
*LOADS
*RC U8408:B 7.131e-08
*RC DP_OP_393J1_130_8634\/U10:A 6.913e-08
*END

*R_NET position_x\[22\] 1.553e-02
*DRIVER position_x_reg\[22\]:Q
*CELL DFFRX2
*C2_R1_C1 7.765e-03 5.667e-06 7.765e-03 
*LOADS
*RC U2628:B 8.800e-08
*END

*R_NET position_x\[21\] 1.553e-02
*DRIVER position_x_reg\[21\]:Q
*CELL DFFRX2
*C2_R1_C1 7.765e-03 5.667e-06 7.765e-03 
*LOADS
*RC U2504:B 8.800e-08
*END

*R_NET position_x\[20\] 1.258e-02
*DRIVER position_x_reg\[20\]:Q
*CELL DFFRX2
*C2_R1_C1 6.292e-03 5.667e-06 6.292e-03 
*LOADS
*RC U2603:B 7.131e-08
*END

*R_NET position_x\[19\] 1.553e-02
*DRIVER position_x_reg\[19\]:Q
*CELL DFFRX2
*C2_R1_C1 7.765e-03 5.667e-06 7.765e-03 
*LOADS
*RC U2583:B 8.800e-08
*END

*R_NET position_x\[18\] 1.553e-02
*DRIVER position_x_reg\[18\]:Q
*CELL DFFRX2
*C2_R1_C1 7.765e-03 5.667e-06 7.765e-03 
*LOADS
*RC U2630:B 8.800e-08
*END

*R_NET position_x\[17\] 1.258e-02
*DRIVER position_x_reg\[17\]:Q
*CELL DFFRX2
*C2_R1_C1 6.292e-03 5.667e-06 6.292e-03 
*LOADS
*RC U2637:B 7.131e-08
*END

*R_NET position_x\[16\] 2.678e-02
*DRIVER position_x_reg\[16\]:Q
*CELL DFFRX2
*C2_R1_C1 1.339e-02 1.133e-05 1.339e-02 
*LOADS
*RC U2580:B 7.131e-08
*RC U11114:A0N 8.042e-08
*END

*R_NET position_x\[15\] 1.258e-02
*DRIVER position_x_reg\[15\]:Q
*CELL DFFRX2
*C2_R1_C1 6.292e-03 5.667e-06 6.292e-03 
*LOADS
*RC U2581:B 7.131e-08
*END

*R_NET position_x\[14\] 1.258e-02
*DRIVER position_x_reg\[14\]:Q
*CELL DFFRX2
*C2_R1_C1 6.292e-03 5.667e-06 6.292e-03 
*LOADS
*RC U2632:B 7.131e-08
*END

*R_NET position_x\[13\] 1.258e-02
*DRIVER position_x_reg\[13\]:Q
*CELL DFFRX2
*C2_R1_C1 6.292e-03 5.667e-06 6.292e-03 
*LOADS
*RC U2507:B 7.131e-08
*END

*R_NET position_x\[12\] 1.258e-02
*DRIVER position_x_reg\[12\]:Q
*CELL DFFRX2
*C2_R1_C1 6.292e-03 5.667e-06 6.292e-03 
*LOADS
*RC U2589:B 7.131e-08
*END

*R_NET position_x\[11\] 1.258e-02
*DRIVER position_x_reg\[11\]:Q
*CELL DFFRX2
*C2_R1_C1 6.292e-03 5.667e-06 6.292e-03 
*LOADS
*RC U2582:B 7.131e-08
*END

*R_NET position_x\[10\] 1.258e-02
*DRIVER position_x_reg\[10\]:Q
*CELL DFFRX2
*C2_R1_C1 6.292e-03 5.667e-06 6.292e-03 
*LOADS
*RC U2519:B 7.131e-08
*END

*R_NET position_x\[9\] 1.553e-02
*DRIVER position_x_reg\[9\]:Q
*CELL DFFRX2
*C2_R1_C1 7.765e-03 5.667e-06 7.765e-03 
*LOADS
*RC U14223:B 8.800e-08
*END

*R_NET position_x\[8\] 1.258e-02
*DRIVER position_x_reg\[8\]:Q
*CELL DFFRX2
*C2_R1_C1 6.292e-03 5.667e-06 6.292e-03 
*LOADS
*RC U2633:B 7.131e-08
*END

*R_NET position_x\[7\] 2.517e-02
*DRIVER position_x_reg\[7\]:Q
*CELL DFFRX1
*C2_R1_C1 1.258e-02 1.133e-05 1.258e-02 
*LOADS
*RC U2514:B 7.131e-08
*RC U16385:B 7.131e-08
*END

*R_NET position_x\[6\] 2.517e-02
*DRIVER position_x_reg\[6\]:Q
*CELL DFFRX1
*C2_R1_C1 1.258e-02 1.133e-05 1.258e-02 
*LOADS
*RC U2515:B 7.131e-08
*RC U16347:B 7.131e-08
*END

*R_NET position_x\[5\] 2.517e-02
*DRIVER position_x_reg\[5\]:Q
*CELL DFFRX1
*C2_R1_C1 1.258e-02 1.133e-05 1.258e-02 
*LOADS
*RC U6710:B 7.131e-08
*RC U16380:B 7.131e-08
*END

*R_NET position_x\[4\] 2.517e-02
*DRIVER position_x_reg\[4\]:Q
*CELL DFFRX1
*C2_R1_C1 1.258e-02 1.133e-05 1.258e-02 
*LOADS
*RC U2593:B 7.131e-08
*RC U16379:B 7.131e-08
*END

*R_NET position_x\[3\] 2.811e-02
*DRIVER position_x_reg\[3\]:Q
*CELL DFFRHQX1
*C2_R1_C1 1.406e-02 1.133e-05 1.406e-02 
*LOADS
*RC U14201:B 8.800e-08
*RC U16378:B 7.131e-08
*END

*R_NET position_x\[2\] 2.517e-02
*DRIVER position_x_reg\[2\]:Q
*CELL DFFRX1
*C2_R1_C1 1.258e-02 1.133e-05 1.258e-02 
*LOADS
*RC U2594:B 7.131e-08
*RC U16377:B 7.131e-08
*END

*R_NET position_x\[1\] 2.410e-02
*DRIVER position_x_reg\[1\]:Q
*CELL DFFRX1
*C2_R1_C1 1.205e-02 1.133e-05 1.205e-02 
*LOADS
*RC U2636:B 7.131e-08
*RC U8415:B 6.524e-08
*END

*R_NET position_x\[0\] 1.151e-02
*DRIVER position_x_reg\[0\]:Q
*CELL DFFRX1
*C2_R1_C1 5.757e-03 5.667e-06 5.757e-03 
*LOADS
*RC U8409:B 6.524e-08
*END

*R_NET position_y\[31\] 2.462e-02
*DRIVER position_y_reg\[31\]:Q
*CELL DFFRX2
*C2_R1_C1 1.231e-02 1.133e-05 1.231e-02 
*LOADS
*RC U16921:B 7.131e-08
*RC DP_OP_391J1_128_2679\/U4:B 6.822e-08
*END

*R_NET position_y\[30\] 2.462e-02
*DRIVER position_y_reg\[30\]:Q
*CELL DFFRX2
*C2_R1_C1 1.231e-02 1.133e-05 1.231e-02 
*LOADS
*RC U8410:B 7.131e-08
*RC DP_OP_391J1_128_2679\/U5:B 6.822e-08
*END

*R_NET position_y\[29\] 2.462e-02
*DRIVER position_y_reg\[29\]:Q
*CELL DFFRX2
*C2_R1_C1 1.231e-02 1.133e-05 1.231e-02 
*LOADS
*RC U16904:B 7.131e-08
*RC DP_OP_391J1_128_2679\/U6:B 6.822e-08
*END

*R_NET position_y\[28\] 2.462e-02
*DRIVER position_y_reg\[28\]:Q
*CELL DFFRX2
*C2_R1_C1 1.231e-02 1.133e-05 1.231e-02 
*LOADS
*RC U16896:B 7.131e-08
*RC DP_OP_391J1_128_2679\/U7:B 6.822e-08
*END

*R_NET position_y\[27\] 2.462e-02
*DRIVER position_y_reg\[27\]:Q
*CELL DFFRX2
*C2_R1_C1 1.231e-02 1.133e-05 1.231e-02 
*LOADS
*RC U8411:B 7.131e-08
*RC DP_OP_391J1_128_2679\/U8:B 6.822e-08
*END

*R_NET position_y\[26\] 2.462e-02
*DRIVER position_y_reg\[26\]:Q
*CELL DFFRX2
*C2_R1_C1 1.231e-02 1.133e-05 1.231e-02 
*LOADS
*RC U16890:B 7.131e-08
*RC DP_OP_391J1_128_2679\/U9:B 6.822e-08
*END

*R_NET position_y\[25\] 2.462e-02
*DRIVER position_y_reg\[25\]:Q
*CELL DFFRX2
*C2_R1_C1 1.231e-02 1.133e-05 1.231e-02 
*LOADS
*RC U7864:B 7.131e-08
*RC DP_OP_391J1_128_2679\/U10:B 6.822e-08
*END

*R_NET position_y\[24\] 2.355e-02
*DRIVER position_y_reg\[24\]:Q
*CELL DFFRX2
*C2_R1_C1 1.178e-02 1.133e-05 1.178e-02 
*LOADS
*RC U9229:B 6.524e-08
*RC DP_OP_391J1_128_2679\/U11:B 6.822e-08
*END

*R_NET position_y\[23\] 2.371e-02
*DRIVER position_y_reg\[23\]:Q
*CELL DFFRX2
*C2_R1_C1 1.186e-02 1.133e-05 1.186e-02 
*LOADS
*RC U12352:B 6.524e-08
*RC DP_OP_391J1_128_2679\/U12:A 6.913e-08
*END

*R_NET position_y\[22\] 1.258e-02
*DRIVER position_y_reg\[22\]:Q
*CELL DFFRX2
*C2_R1_C1 6.292e-03 5.667e-06 6.292e-03 
*LOADS
*RC U9218:B 7.131e-08
*END

*R_NET position_y\[21\] 2.517e-02
*DRIVER position_y_reg\[21\]:Q
*CELL DFFRX2
*C2_R1_C1 1.258e-02 1.133e-05 1.258e-02 
*LOADS
*RC U2506:B 7.131e-08
*RC U16877:B 7.131e-08
*END

*R_NET position_y\[20\] 1.258e-02
*DRIVER position_y_reg\[20\]:Q
*CELL DFFRX2
*C2_R1_C1 6.292e-03 5.667e-06 6.292e-03 
*LOADS
*RC U8407:B 7.131e-08
*END

*R_NET position_y\[19\] 1.258e-02
*DRIVER position_y_reg\[19\]:Q
*CELL DFFRX2
*C2_R1_C1 6.292e-03 5.667e-06 6.292e-03 
*LOADS
*RC U13979:B 7.131e-08
*END

*R_NET position_y\[18\] 1.258e-02
*DRIVER position_y_reg\[18\]:Q
*CELL DFFRX2
*C2_R1_C1 6.292e-03 5.667e-06 6.292e-03 
*LOADS
*RC U9184:B 7.131e-08
*END

*R_NET position_y\[17\] 1.258e-02
*DRIVER position_y_reg\[17\]:Q
*CELL DFFRX2
*C2_R1_C1 6.292e-03 5.667e-06 6.292e-03 
*LOADS
*RC U16871:B 7.131e-08
*END

*R_NET position_y\[16\] 1.258e-02
*DRIVER position_y_reg\[16\]:Q
*CELL DFFRX2
*C2_R1_C1 6.292e-03 5.667e-06 6.292e-03 
*LOADS
*RC U9208:B 7.131e-08
*END

*R_NET position_y\[15\] 1.151e-02
*DRIVER position_y_reg\[15\]:Q
*CELL DFFRX2
*C2_R1_C1 5.757e-03 5.667e-06 5.757e-03 
*LOADS
*RC U12291:B 6.524e-08
*END

*R_NET position_y\[14\] 1.151e-02
*DRIVER position_y_reg\[14\]:Q
*CELL DFFRX2
*C2_R1_C1 5.757e-03 5.667e-06 5.757e-03 
*LOADS
*RC U12311:B 6.524e-08
*END

*R_NET position_y\[13\] 1.258e-02
*DRIVER position_y_reg\[13\]:Q
*CELL DFFRX2
*C2_R1_C1 6.292e-03 5.667e-06 6.292e-03 
*LOADS
*RC U10843:B 7.131e-08
*END

*R_NET position_y\[12\] 1.151e-02
*DRIVER position_y_reg\[12\]:Q
*CELL DFFRX2
*C2_R1_C1 5.757e-03 5.667e-06 5.757e-03 
*LOADS
*RC U12288:B 6.524e-08
*END

*R_NET position_y\[11\] 1.258e-02
*DRIVER position_y_reg\[11\]:Q
*CELL DFFRX2
*C2_R1_C1 6.292e-03 5.667e-06 6.292e-03 
*LOADS
*RC U10756:B 7.131e-08
*END

*R_NET position_y\[10\] 1.234e-02
*DRIVER position_y_reg\[10\]:Q
*CELL DFFRX2
*C2_R1_C1 6.168e-03 5.667e-06 6.168e-03 
*LOADS
*RC U6844:B 6.990e-08
*END

*R_NET position_y\[9\] 1.258e-02
*DRIVER position_y_reg\[9\]:Q
*CELL DFFRX2
*C2_R1_C1 6.292e-03 5.667e-06 6.292e-03 
*LOADS
*RC U14001:B 7.131e-08
*END

*R_NET position_y\[8\] 1.258e-02
*DRIVER position_y_reg\[8\]:Q
*CELL DFFRX2
*C2_R1_C1 6.292e-03 5.667e-06 6.292e-03 
*LOADS
*RC U14003:B 7.131e-08
*END

*R_NET position_y\[7\] 1.151e-02
*DRIVER position_y_reg\[7\]:Q
*CELL DFFRX1
*C2_R1_C1 5.757e-03 5.667e-06 5.757e-03 
*LOADS
*RC U5886:B 6.524e-08
*END

*R_NET position_y\[6\] 2.517e-02
*DRIVER position_y_reg\[6\]:Q
*CELL DFFRX1
*C2_R1_C1 1.258e-02 1.133e-05 1.258e-02 
*LOADS
*RC U12811:B 7.131e-08
*RC U16860:B 7.131e-08
*END

*R_NET position_y\[5\] 1.258e-02
*DRIVER position_y_reg\[5\]:Q
*CELL DFFRX1
*C2_R1_C1 6.292e-03 5.667e-06 6.292e-03 
*LOADS
*RC U16856:B 7.131e-08
*END

*R_NET position_y\[4\] 1.151e-02
*DRIVER position_y_reg\[4\]:Q
*CELL DFFRX1
*C2_R1_C1 5.757e-03 5.667e-06 5.757e-03 
*LOADS
*RC U5889:B 6.524e-08
*END

*R_NET position_y\[3\] 2.377e-02
*DRIVER position_y_reg\[3\]:Q
*CELL DFFRHQX1
*C2_R1_C1 1.188e-02 1.133e-05 1.188e-02 
*LOADS
*RC U5885:B 6.524e-08
*RC U9250:A 6.945e-08
*END

*R_NET position_y\[2\] 1.258e-02
*DRIVER position_y_reg\[2\]:Q
*CELL DFFRX1
*C2_R1_C1 6.292e-03 5.667e-06 6.292e-03 
*LOADS
*RC U16337:B 7.131e-08
*END

*R_NET position_y\[1\] 1.127e-02
*DRIVER position_y_reg\[1\]:Q
*CELL DFFRX1
*C2_R1_C1 5.636e-03 5.667e-06 5.636e-03 
*LOADS
*RC U5892:A0N 6.387e-08
*END

*R_NET position_y\[0\] 1.258e-02
*DRIVER position_y_reg\[0\]:Q
*CELL DFFRX1
*C2_R1_C1 6.292e-03 5.667e-06 6.292e-03 
*LOADS
*RC U16336:B 7.131e-08
*END

*R_NET inter_pol_data_16\[3\]\[3\]\[7\] 2.278e-02
*DRIVER inter_pol_data_16_reg\[3\]\[3\]\[7\]:Q
*CELL DFFQX1
*C2_R1_C1 1.139e-02 1.133e-05 1.139e-02 
*LOADS
*RC U16653:B 6.524e-08
*RC U17052:A1N 6.384e-08
*END

*R_NET inter_pol_data_16\[3\]\[3\]\[6\] 2.278e-02
*DRIVER inter_pol_data_16_reg\[3\]\[3\]\[6\]:Q
*CELL DFFQX1
*C2_R1_C1 1.139e-02 1.133e-05 1.139e-02 
*LOADS
*RC U16658:B 6.524e-08
*RC U17054:A1N 6.384e-08
*END

*R_NET inter_pol_data_16\[3\]\[3\]\[5\] 2.278e-02
*DRIVER inter_pol_data_16_reg\[3\]\[3\]\[5\]:Q
*CELL DFFQX1
*C2_R1_C1 1.139e-02 1.133e-05 1.139e-02 
*LOADS
*RC U16665:B 6.524e-08
*RC U17056:A1N 6.384e-08
*END

*R_NET inter_pol_data_16\[3\]\[3\]\[4\] 2.278e-02
*DRIVER inter_pol_data_16_reg\[3\]\[3\]\[4\]:Q
*CELL DFFQX1
*C2_R1_C1 1.139e-02 1.133e-05 1.139e-02 
*LOADS
*RC U16788:B 6.524e-08
*RC U17058:A1N 6.384e-08
*END

*R_NET inter_pol_data_16\[3\]\[3\]\[3\] 2.278e-02
*DRIVER inter_pol_data_16_reg\[3\]\[3\]\[3\]:Q
*CELL DFFQX1
*C2_R1_C1 1.139e-02 1.133e-05 1.139e-02 
*LOADS
*RC U16795:B 6.524e-08
*RC U17060:A1N 6.384e-08
*END

*R_NET inter_pol_data_16\[3\]\[3\]\[2\] 2.278e-02
*DRIVER inter_pol_data_16_reg\[3\]\[3\]\[2\]:Q
*CELL DFFQX1
*C2_R1_C1 1.139e-02 1.133e-05 1.139e-02 
*LOADS
*RC U16573:B 6.524e-08
*RC U17062:A1N 6.384e-08
*END

*R_NET inter_pol_data_16\[3\]\[3\]\[1\] 2.278e-02
*DRIVER inter_pol_data_16_reg\[3\]\[3\]\[1\]:Q
*CELL DFFQX1
*C2_R1_C1 1.139e-02 1.133e-05 1.139e-02 
*LOADS
*RC U16801:B 6.524e-08
*RC U17063:A1N 6.384e-08
*END

*R_NET inter_pol_data_16\[3\]\[3\]\[0\] 2.278e-02
*DRIVER inter_pol_data_16_reg\[3\]\[3\]\[0\]:Q
*CELL DFFQX1
*C2_R1_C1 1.139e-02 1.133e-05 1.139e-02 
*LOADS
*RC U16957:B 6.524e-08
*RC U17064:A1N 6.384e-08
*END

*R_NET inter_pol_data_16\[3\]\[2\]\[7\] 2.278e-02
*DRIVER inter_pol_data_16_reg\[3\]\[2\]\[7\]:Q
*CELL DFFQX1
*C2_R1_C1 1.139e-02 1.133e-05 1.139e-02 
*LOADS
*RC U16365:B 6.524e-08
*RC U17067:A1N 6.384e-08
*END

*R_NET inter_pol_data_16\[3\]\[2\]\[6\] 2.278e-02
*DRIVER inter_pol_data_16_reg\[3\]\[2\]\[6\]:Q
*CELL DFFQX1
*C2_R1_C1 1.139e-02 1.133e-05 1.139e-02 
*LOADS
*RC U16583:B 6.524e-08
*RC U17068:A1N 6.384e-08
*END

*R_NET inter_pol_data_16\[3\]\[2\]\[5\] 2.278e-02
*DRIVER inter_pol_data_16_reg\[3\]\[2\]\[5\]:Q
*CELL DFFQX1
*C2_R1_C1 1.139e-02 1.133e-05 1.139e-02 
*LOADS
*RC U16485:B 6.524e-08
*RC U17069:A1N 6.384e-08
*END

*R_NET inter_pol_data_16\[3\]\[2\]\[4\] 2.278e-02
*DRIVER inter_pol_data_16_reg\[3\]\[2\]\[4\]:Q
*CELL DFFQX1
*C2_R1_C1 1.139e-02 1.133e-05 1.139e-02 
*LOADS
*RC U16502:B 6.524e-08
*RC U17070:A1N 6.384e-08
*END

*R_NET inter_pol_data_16\[3\]\[2\]\[3\] 2.278e-02
*DRIVER inter_pol_data_16_reg\[3\]\[2\]\[3\]:Q
*CELL DFFQX1
*C2_R1_C1 1.139e-02 1.133e-05 1.139e-02 
*LOADS
*RC U16550:B 6.524e-08
*RC U17071:A1N 6.384e-08
*END

*R_NET inter_pol_data_16\[3\]\[2\]\[2\] 2.278e-02
*DRIVER inter_pol_data_16_reg\[3\]\[2\]\[2\]:Q
*CELL DFFQX1
*C2_R1_C1 1.139e-02 1.133e-05 1.139e-02 
*LOADS
*RC U16558:B 6.524e-08
*RC U17072:A1N 6.384e-08
*END

*R_NET inter_pol_data_16\[3\]\[2\]\[1\] 2.278e-02
*DRIVER inter_pol_data_16_reg\[3\]\[2\]\[1\]:Q
*CELL DFFQX1
*C2_R1_C1 1.139e-02 1.133e-05 1.139e-02 
*LOADS
*RC U16449:B 6.524e-08
*RC U17073:A1N 6.384e-08
*END

*R_NET inter_pol_data_16\[3\]\[2\]\[0\] 2.278e-02
*DRIVER inter_pol_data_16_reg\[3\]\[2\]\[0\]:Q
*CELL DFFQX1
*C2_R1_C1 1.139e-02 1.133e-05 1.139e-02 
*LOADS
*RC U16444:B 6.524e-08
*RC U17074:A1N 6.384e-08
*END

*R_NET inter_pol_data_16\[3\]\[1\]\[7\] 2.278e-02
*DRIVER inter_pol_data_16_reg\[3\]\[1\]\[7\]:Q
*CELL DFFQX1
*C2_R1_C1 1.139e-02 1.133e-05 1.139e-02 
*LOADS
*RC U16568:B 6.524e-08
*RC U17077:A1N 6.384e-08
*END

*R_NET inter_pol_data_16\[3\]\[1\]\[6\] 2.278e-02
*DRIVER inter_pol_data_16_reg\[3\]\[1\]\[6\]:Q
*CELL DFFQX1
*C2_R1_C1 1.139e-02 1.133e-05 1.139e-02 
*LOADS
*RC U16498:B 6.524e-08
*RC U17078:A1N 6.384e-08
*END

*R_NET inter_pol_data_16\[3\]\[1\]\[5\] 2.278e-02
*DRIVER inter_pol_data_16_reg\[3\]\[1\]\[5\]:Q
*CELL DFFQX1
*C2_R1_C1 1.139e-02 1.133e-05 1.139e-02 
*LOADS